# generated using pymatgen
data_Na2O
_symmetry_space_group_name_H-M   'P 1'
_cell_length_a   4.65884171
_cell_length_b   4.65884171
_cell_length_c   4.65884171
_cell_angle_alpha   90.00000000
_cell_angle_beta   90.00000000
_cell_angle_gamma   90.00000000
_symmetry_Int_Tables_number   1
_chemical_formula_structural   Na2O
_chemical_formula_sum   'Na8 O4'
_cell_volume   101.119255769
_cell_formula_units_Z   4
loop_
 _symmetry_equiv_pos_site_id
 _symmetry_equiv_pos_as_xyz
  1  'x, y, z'
loop_
 _atom_site_type_symbol
 _atom_site_label
 _atom_site_symmetry_multiplicity
 _atom_site_fract_x
 _atom_site_fract_y
 _atom_site_fract_z
 _atom_site_occupancy
  Na  Na1  1  0.250000  0.250000  0.250000  1.0
  Na  Na2  1  0.750000  0.750000  0.750000  1.0
  Na  Na3  1  0.250000  0.750000  0.750000  1.0
  Na  Na4  1  0.750000  0.250000  0.250000  1.0
  Na  Na5  1  0.750000  0.250000  0.750000  1.0
  Na  Na6  1  0.250000  0.750000  0.250000  1.0
  Na  Na7  1  0.750000  0.750000  0.250000  1.0
  Na  Na8  1  0.250000  0.250000  0.750000  1.0
  O  O9  1  0.000000  0.000000  0.000000  1
  O  O10  1  0.000000  0.500000  0.500000  1
  O  O11  1  0.500000  0.000000  0.500000  1
  O  O12  1  0.500000  0.500000  0.000000  1
